[Format]      =  4.0
[Frequency]   =  0
[Precision]   =  1e-008
[MinAngle]    =  30
[DoSmartMesh] =  1
[Depth]       =  5.6983441652404299
[LengthUnits] =  centimeters
[ProblemType] =  planar
[Coordinates] =  cartesian
[ACSolver]    =  0
[PrevType]    =  0
[PrevSoln]    =  ""
[Comment]     =  "Add comments here."
[PointProps]   = 0
[BdryProps]   = 1
  <BeginBdry>
    <BdryName> = "granica"
    <BdryType> = 0
    <A_0> = 0
    <A_1> = 0
    <A_2> = 0
    <Phi> = 0
    <c0> = 0
    <c0i> = 0
    <c1> = 0
    <c1i> = 0
    <Mu_ssd> = 0
    <Sigma_ssd> = 0
    <innerangle> = 0
    <outerangle> = 0
  <EndBdry>
[BlockProps]  = 4
  <BeginBlock>
    <BlockName> = "Air"
    <Mu_x> = 1
    <Mu_y> = 1
    <H_c> = 0
    <H_cAngle> = 0
    <J_re> = 0
    <J_im> = 0
    <Sigma> = 0
    <d_lam> = 0
    <Phi_h> = 0
    <Phi_hx> = 0
    <Phi_hy> = 0
    <LamType> = 0
    <LamFill> = 1
    <NStrands> = 0
    <WireD> = 0
    <BHPoints> = 0
  <EndBlock>
  <BeginBlock>
    <BlockName> = "M-19 Steel"
    <Mu_x> = 4416
    <Mu_y> = 4416
    <H_c> = 0
    <H_cAngle> = 0
    <J_re> = 0
    <J_im> = 0
    <Sigma> = 1.8999999999999999
    <d_lam> = 0.63500000000000001
    <Phi_h> = 0
    <Phi_hx> = 0
    <Phi_hy> = 0
    <LamType> = 0
    <LamFill> = 0.97999999999999998
    <NStrands> = 0
    <WireD> = 0
    <BHPoints> = 47
      0	0
      0.050000000000000003	15.120714
      0.10000000000000001	22.718292000000002
      0.14999999999999999	27.842732999999999
      0.20000000000000001	31.871434000000001
      0.25	35.365043999999997
      0.29999999999999999	38.600588000000002
      0.34999999999999998	41.736201999999999
      0.40000000000000002	44.873978999999999
      0.45000000000000001	48.087806999999998
      0.5	51.437235999999999
      0.55000000000000004	54.975220999999998
      0.59999999999999998	58.752992999999996
      0.65000000000000002	62.823644000000002
      0.69999999999999996	67.245284999999996
      0.75	72.084406000000001
      0.80000000000000004	77.420100000000005
      0.84999999999999998	83.350020999999998
      0.90000000000000002	89.999611999999999
      0.94999999999999996	97.537352999999996
      1	106.20140600000001
      1.05	116.34846400000001
      1.1000000000000001	128.54732899999999
      1.1499999999999999	143.76543100000001
      1.2	163.75416899999999
      1.25	191.86815799999999
      1.3	234.833507
      1.3500000000000001	306.50976900000001
      1.3999999999999999	435.255202
      1.45	674.911968
      1.5	1108.3255690000001
      1.55	1813.085468
      1.6000000000000001	2801.2174209999998
      1.6499999999999999	4053.6531169999998
      1.7	5591.10689
      1.75	7448.318413
      1.8	9708.81567
      1.8500000000000001	12486.931615
      1.8999999999999999	16041.483644
      1.95	21249.420623999998
      2	31313.495878000002
      2.0499999999999998	53589.446877000002
      2.1000000000000001	88477.484601000004
      2.1499999999999999	124329.41054
      2.2000000000000002	159968.5693
      2.25	197751.604272
      2.2999999999999998	234024.75134700001
  <EndBlock>
  <BeginBlock>
    <BlockName> = "19 AWG"
    <Mu_x> = 1
    <Mu_y> = 1
    <H_c> = 0
    <H_cAngle> = 0
    <J_re> = 0
    <J_im> = 0
    <Sigma> = 58
    <d_lam> = 0
    <Phi_h> = 0
    <Phi_hx> = 0
    <Phi_hy> = 0
    <LamType> = 3
    <LamFill> = 1
    <NStrands> = 1
    <WireD> = 0.91161990545000005
    <BHPoints> = 0
  <EndBlock>
  <BeginBlock>
    <BlockName> = "Aluminum, 1100"
    <Mu_x> = 1
    <Mu_y> = 1
    <H_c> = 0
    <H_cAngle> = 0
    <J_re> = 0
    <J_im> = 0
    <Sigma> = 34.450000000000003
    <d_lam> = 0
    <Phi_h> = 0
    <Phi_hx> = 0
    <Phi_hy> = 0
    <LamType> = 0
    <LamFill> = 1
    <NStrands> = 0
    <WireD> = 0
    <BHPoints> = 0
  <EndBlock>
[CircuitProps]  = 3
  <BeginCircuit>
    <CircuitName> = "A"
    <TotalAmps_re> = 2.3361000000000001
    <TotalAmps_im> = 0
    <CircuitType> = 1
  <EndCircuit>
  <BeginCircuit>
    <CircuitName> = "B"
    <TotalAmps_re> = -1.1679999999999999
    <TotalAmps_im> = -2.0230999999999999
    <CircuitType> = 1
  <EndCircuit>
  <BeginCircuit>
    <CircuitName> = "C"
    <TotalAmps_re> = -1.1679999999999999
    <TotalAmps_im> = 2.0230999999999999
    <CircuitType> = 1
  <EndCircuit>
[NumPoints] = 762
3.9999842932126382	0.52660792251179811	0	1
4.6364918942146236	0.6104057379170712	0	1
4.0215985230820372	0.32239039865414371	0	1
4.6615455429899972	0.37369158490670529	0	1
4.6751534259797012	0.1122171713699129	0	1
4.7072441829505012	0.11298744212816671	0	1
4.669170368500601	0.26172565773334883	0	1
4.7012200571200529	0.26352217085496549	0	1
3.8970277461632459	1.04420543746612	0	1
4.517152126640827	1.2103672644219381	0	1
3.945112799073561	0.84455624595758638	0	1
4.5728888350148731	0.9789483911812249	0	1
4.6205095602411186	0.72148711265026355	0	1
4.6522252358283609	0.72643947794825836	0	1
4.59506291521856	0.86893558747648802	0	1
4.6266039222919071	0.8749000549966407	0	1
3.7273919739167871	1.5439363078769539	0	1
4.3205226337890332	1.7896190714553419	0	1
3.8011251012810261	1.352271501737466	0	1
4.4059887312283346	1.5674551190668631	0	1
4.4868074948795451	1.318412209399149	0	1
4.5176054250806841	1.3274619328935811	0	1
4.4423326614650032	1.4612777884034449	0	1
4.4728253116164032	1.471308156629201	0	1
3.4939794915683171	2.0172499999999989	0	1
4.0499678007979272	2.3382499999999991	0	1
3.5920990991345958	1.8368490172021259	0	1
4.1637009386796224	2.1291422552846062	0	1
4.276334909302526	1.8927789077122941	0	1
4.3056881329930237	1.9057711461251159	0	1
4.2135928642264791	2.0286171212280761	0	1
4.2425154197576811	2.0425417677781499	0	1
3.2007840514049888	2.4560479853356831	0	1
3.7101168958719608	2.846872822759281	0	1
3.321611285483951	2.2899975367116991	0	1
3.85017106867411	2.6543991772046742	0	1
3.992693047803316	2.4347596341370261	0	1
4.0200993231875737	2.451472086666866	0	1
3.9127573248523948	2.5612462526695712	0	1
3.9396149128194131	2.5788269229808489	0	1
2.8528223086971258	2.8528223086971258	0	1
3.30678486221889	3.3067848622188878	0	1
2.9942897818140439	2.7039635634608681	0	1
3.4707637042144941	3.134238593264282	0	1
3.6407351012725431	2.9350809481787721	0	1
3.665725499380283	2.9552276601292768	0	1
3.544973422828809	3.050051750616273	0	1
3.5693065024551971	3.0709876345454461	0	1
2.456047985335684	3.2007840514049879	0	1
2.8468728227592832	3.7101168958719599	0	1
2.6157351498033341	3.071664023958891	0	1
3.031970610498274	3.5604503180180331	0	1
3.2264831677565291	3.3851822134390042	0	1
3.2486300959474801	3.4084184689829771	0	1
3.1165340426883059	3.4866700174758258	0	1
3.137926268235252	3.5106028962443441	0	1
2.0172500000000002	3.4939794915683171	0	1
2.3382499999999999	4.0499678007979263	0	1
2.1924245641606941	3.386807461380819	0	1
2.5412996590153631	3.9257417506871719	0	1
2.7570252126900638	3.7773620724774708	0	1
2.7759497308825911	3.8032902928402481	0	1
2.634769901010928	3.8636303936488101	0	1
2.6528552455682788	3.8901507690654942	0	1
1.543936307876955	3.7273919739167858	0	1
1.789619071455343	4.3205226337890323	0	1
1.7316009863703381	3.6440016841380949	0	1
2.0071463657853221	4.2238626535808139	0	1
2.2403937918426742	4.1049102191732292	0	1
2.2557720962836338	4.133086765315741	0	1
2.1079241158310298	4.1744829825857428	0	1
2.1223931341392031	4.2031370836743793	0	1
1.04420543746612	3.8970277461632459	0	1
1.2103672644219381	4.517152126640827	0	1
1.2411492356126921	3.8388460277716301	0	1
1.43865024175059	4.4497120953957179	0	1
1.6854286120623461	4.3622222139228057	0	1
1.696997575699084	4.3921649773285409	0	1
1.5450111646022859	4.4139090103052974	0	1
1.5556162877464601	4.444206557451837	0	1
0.52660792251179833	3.9999842932126382	0	1
0.6104057379170712	4.6364918942146236	0	1
0.72946107732213494	3.968006651540799	0	1
0.84553841321030165	4.5994257295651373	0	1
1.101625281440539	4.5448953771556777	0	1
1.1091869560977059	4.576092028841062	0	1
0.95566264398917578	4.5778118310917506	0	1
0.96222241537205888	4.6092344248644537	0	1
7.0000000000000003e-016	4.0345000000000004	0	1
7.0000000000000003e-016	4.676499999999999	0	1
0.2052916377537771	4.02927358136282	0	1
0.23795918799244969	4.6704419142999702	0	1
0.4989728368250555	4.6498041204023588	0	1
0.50239784015277589	4.6817208770077077	0	1
0.34996247057766983	4.6633870222390037	0	1
0.35236465069218781	4.6953970133464287	0	1
-0.52660792251179789	3.9999842932126382	0	1
-0.61040573791707087	4.6364918942146236	0	1
-0.32239039865414348	4.0215985230820372	0	1
-0.37369158490670512	4.6615455429899972	0	1
-0.1122171713699126	4.6751534259797012	0	1
-0.1129874421281664	4.7072441829505012	0	1
-0.26172565773334849	4.669170368500601	0	1
-0.26352217085496521	4.7012200571200529	0	1
-1.0442054374661189	3.8970277461632459	0	1
-1.210367264421937	4.517152126640827	0	1
-0.84455624595758605	3.945112799073561	0	1
-0.97894839118122468	4.5728888350148731	0	1
-0.72148711265026322	4.6205095602411186	0	1
-0.72643947794825803	4.6522252358283609	0	1
-0.86893558747648758	4.59506291521856	0	1
-0.87490005499664047	4.6266039222919071	0	1
-1.5439363078769539	3.7273919739167871	0	1
-1.789619071455341	4.3205226337890332	0	1
-1.352271501737466	3.8011251012810261	0	1
-1.5674551190668631	4.4059887312283346	0	1
-1.318412209399149	4.4868074948795451	0	1
-1.3274619328935811	4.5176054250806841	0	1
-1.4612777884034449	4.4423326614650032	0	1
-1.471308156629201	4.4728253116164032	0	1
-2.0172499999999989	3.4939794915683171	0	1
-2.3382499999999991	4.0499678007979272	0	1
-1.8368490172021259	3.5920990991345958	0	1
-2.1291422552846062	4.1637009386796224	0	1
-1.8927789077122941	4.276334909302526	0	1
-1.9057711461251159	4.3056881329930237	0	1
-2.0286171212280761	4.2135928642264791	0	1
-2.042541767778149	4.2425154197576811	0	1
-2.4560479853356831	3.2007840514049888	0	1
-2.8468728227592801	3.7101168958719608	0	1
-2.2899975367116991	3.321611285483951	0	1
-2.6543991772046742	3.85017106867411	0	1
-2.4347596341370261	3.992693047803316	0	1
-2.451472086666866	4.0200993231875737	0	1
-2.5612462526695712	3.9127573248523948	0	1
-2.5788269229808489	3.9396149128194131	0	1
-2.8528223086971258	2.8528223086971258	0	1
-3.3067848622188878	3.30678486221889	0	1
-2.7039635634608681	2.9942897818140439	0	1
-3.134238593264282	3.4707637042144941	0	1
-2.9350809481787721	3.6407351012725431	0	1
-2.9552276601292768	3.665725499380283	0	1
-3.050051750616273	3.544973422828809	0	1
-3.0709876345454461	3.5693065024551971	0	1
-3.2007840514049879	2.456047985335684	0	1
-3.7101168958719599	2.8468728227592832	0	1
-3.071664023958891	2.6157351498033341	0	1
-3.5604503180180331	3.031970610498274	0	1
-3.3851822134390042	3.2264831677565291	0	1
-3.4084184689829771	3.2486300959474801	0	1
-3.4866700174758258	3.1165340426883059	0	1
-3.5106028962443441	3.137926268235252	0	1
-3.4939794915683171	2.0172500000000002	0	1
-4.0499678007979263	2.3382499999999999	0	1
-3.386807461380819	2.1924245641606941	0	1
-3.9257417506871719	2.541299659015364	0	1
-3.7773620724774708	2.7570252126900652	0	1
-3.8032902928402481	2.775949730882592	0	1
-3.8636303936488101	2.6347699010109289	0	1
-3.8901507690654942	2.6528552455682788	0	1
-3.7273919739167858	1.543936307876955	0	1
-4.3205226337890323	1.789619071455343	0	1
-3.6440016841380949	1.7316009863703381	0	1
-4.2238626535808139	2.007146365785323	0	1
-4.1049102191732292	2.2403937918426751	0	1
-4.133086765315741	2.2557720962836352	0	1
-4.1744829825857428	2.1079241158310298	0	1
-4.2031370836743793	2.1223931341392039	0	1
-3.8970277461632459	1.04420543746612	0	1
-4.517152126640827	1.2103672644219381	0	1
-3.8388460277716301	1.2411492356126921	0	1
-4.4497120953957179	1.43865024175059	0	1
-4.3622222139228057	1.685428612062347	0	1
-4.3921649773285409	1.696997575699084	0	1
-4.4139090103052974	1.5450111646022859	0	1
-4.444206557451837	1.555616287746461	0	1
-3.9999842932126382	0.52660792251179855	0	1
-4.6364918942146236	0.61040573791707164	0	1
-3.968006651540799	0.72946107732213505	0	1
-4.5994257295651373	0.84553841321030199	0	1
-4.5448953771556777	1.101625281440539	0	1
-4.576092028841062	1.1091869560977059	0	1
-4.5778118310917506	0.95566264398917611	0	1
-4.6092344248644537	0.96222241537205921	0	1
-4.0345000000000004	9.0000000000000003e-016	0	1
-4.676499999999999	1.0000000000000001e-015	0	1
-4.02927358136282	0.20529163775377729	0	1
-4.6704419142999702	0.23795918799245	0	1
-4.6498041204023588	0.49897283682505578	0	1
-4.6817208770077077	0.50239784015277611	0	1
-4.6633870222390037	0.3499624705776701	0	1
-4.6953970133464287	0.35236465069218809	0	1
-3.9999842932126382	-0.52660792251179767	0	1
-4.6364918942146236	-0.61040573791707065	0	1
-4.0215985230820372	-0.32239039865414321	0	1
-4.6615455429899972	-0.37369158490670479	0	1
-4.6751534259797012	-0.1122171713699123	0	1
-4.7072441829505012	-0.1129874421281661	0	1
-4.669170368500601	-0.26172565773334833	0	1
-4.7012200571200529	-0.26352217085496488	0	1
-3.8970277461632459	-1.0442054374661189	0	1
-4.517152126640827	-1.210367264421937	0	1
-3.945112799073561	-0.84455624595758583	0	1
-4.5728888350148731	-0.97894839118122445	0	1
-4.6205095602411186	-0.72148711265026311	0	1
-4.6522252358283609	-0.72643947794825792	0	1
-4.59506291521856	-0.86893558747648736	0	1
-4.6266039222919071	-0.87490005499664014	0	1
-3.7273919739167871	-1.5439363078769539	0	1
-4.3205226337890332	-1.789619071455341	0	1
-3.8011251012810261	-1.352271501737466	0	1
-4.4059887312283346	-1.5674551190668631	0	1
-4.4868074948795451	-1.318412209399149	0	1
-4.5176054250806841	-1.3274619328935811	0	1
-4.4423326614650032	-1.461277788403444	0	1
-4.4728253116164032	-1.471308156629201	0	1
-3.493979491568318	-2.0172499999999989	0	1
-4.0499678007979272	-2.3382499999999991	0	1
-3.5920990991345971	-1.8368490172021259	0	1
-4.1637009386796224	-2.1291422552846062	0	1
-4.276334909302526	-1.8927789077122941	0	1
-4.3056881329930237	-1.9057711461251159	0	1
-4.2135928642264791	-2.0286171212280761	0	1
-4.2425154197576811	-2.042541767778149	0	1
-3.2007840514049888	-2.4560479853356831	0	1
-3.7101168958719621	-2.8468728227592801	0	1
-3.3216112854839519	-2.2899975367116978	0	1
-3.85017106867411	-2.6543991772046742	0	1
-3.992693047803316	-2.4347596341370261	0	1
-4.0200993231875737	-2.451472086666866	0	1
-3.9127573248523961	-2.5612462526695712	0	1
-3.9396149128194131	-2.5788269229808489	0	1
-2.8528223086971258	-2.8528223086971249	0	1
-3.30678486221889	-3.3067848622188878	0	1
-2.9942897818140448	-2.7039635634608681	0	1
-3.4707637042144941	-3.134238593264282	0	1
-3.6407351012725431	-2.9350809481787721	0	1
-3.6657254993802839	-2.9552276601292768	0	1
-3.5449734228288099	-3.0500517506162721	0	1
-3.5693065024551971	-3.0709876345454461	0	1
-2.456047985335684	-3.200784051404987	0	1
-2.8468728227592832	-3.7101168958719599	0	1
-2.6157351498033341	-3.071664023958891	0	1
-3.031970610498274	-3.5604503180180318	0	1
-3.2264831677565291	-3.3851822134390042	0	1
-3.2486300959474801	-3.4084184689829771	0	1
-3.1165340426883068	-3.4866700174758249	0	1
-3.137926268235252	-3.5106028962443432	0	1
-2.0172500000000011	-3.4939794915683171	0	1
-2.3382499999999999	-4.0499678007979263	0	1
-2.1924245641606941	-3.386807461380819	0	1
-2.541299659015364	-3.9257417506871719	0	1
-2.7570252126900652	-3.7773620724774708	0	1
-2.775949730882592	-3.8032902928402481	0	1
-2.6347699010109289	-3.8636303936488088	0	1
-2.6528552455682788	-3.8901507690654928	0	1
-1.543936307876955	-3.7273919739167858	0	1
-1.789619071455343	-4.3205226337890323	0	1
-1.7316009863703381	-3.6440016841380949	0	1
-2.007146365785323	-4.2238626535808139	0	1
-2.2403937918426751	-4.1049102191732292	0	1
-2.2557720962836352	-4.133086765315741	0	1
-2.1079241158310298	-4.1744829825857428	0	1
-2.1223931341392039	-4.2031370836743793	0	1
-1.04420543746612	-3.8970277461632459	0	1
-1.210367264421939	-4.517152126640827	0	1
-1.2411492356126921	-3.8388460277716301	0	1
-1.43865024175059	-4.4497120953957179	0	1
-1.685428612062347	-4.3622222139228057	0	1
-1.696997575699084	-4.3921649773285409	0	1
-1.5450111646022859	-4.4139090103052974	0	1
-1.555616287746461	-4.444206557451837	0	1
-0.52660792251179867	-3.9999842932126382	0	1
-0.61040573791707176	-4.6364918942146236	0	1
-0.72946107732213528	-3.968006651540799	0	1
-0.84553841321030221	-4.5994257295651373	0	1
-1.1016252814405401	-4.5448953771556777	0	1
-1.109186956097707	-4.576092028841062	0	1
-0.95566264398917633	-4.5778118310917506	0	1
-0.96222241537205944	-4.6092344248644537	0	1
-1.2e-015	-4.0345000000000004	0	1
-1.2e-015	-4.676499999999999	0	1
-0.20529163775377759	-4.02927358136282	0	1
-0.23795918799245031	-4.6704419142999702	0	1
-0.49897283682505611	-4.6498041204023588	0	1
-0.50239784015277644	-4.6817208770077077	0	1
-0.34996247057767038	-4.6633870222390037	0	1
-0.35236465069218831	-4.6953970133464287	0	1
0.52660792251179755	-3.9999842932126382	0	1
0.61040573791707031	-4.6364918942146236	0	1
0.32239039865414298	-4.0215985230820372	0	1
0.37369158490670451	-4.6615455429899972	0	1
0.11221717136991199	-4.6751534259797012	0	1
0.1129874421281658	-4.7072441829505012	0	1
0.26172565773334799	-4.669170368500601	0	1
0.2635221708549646	-4.7012200571200529	0	1
1.0442054374661189	-3.8970277461632459	0	1
1.210367264421937	-4.517152126640827	0	1
0.84455624595758572	-3.945112799073561	0	1
0.97894839118122401	-4.5728888350148731	0	1
0.72148711265026266	-4.6205095602411186	0	1
0.72643947794825747	-4.6522252358283609	0	1
0.86893558747648714	-4.59506291521856	0	1
0.87490005499664003	-4.6266039222919071	0	1
1.543936307876953	-3.7273919739167871	0	1
1.789619071455341	-4.3205226337890332	0	1
1.3522715017374649	-3.8011251012810261	0	1
1.567455119066862	-4.4059887312283346	0	1
1.318412209399149	-4.4868074948795451	0	1
1.3274619328935811	-4.5176054250806841	0	1
1.461277788403444	-4.4423326614650032	0	1
1.471308156629201	-4.4728253116164032	0	1
2.0172499999999989	-3.493979491568318	0	1
2.3382499999999982	-4.0499678007979272	0	1
1.8368490172021259	-3.5920990991345971	0	1
2.1291422552846049	-4.1637009386796224	0	1
1.892778907712293	-4.276334909302526	0	1
1.9057711461251159	-4.3056881329930237	0	1
2.0286171212280748	-4.2135928642264791	0	1
2.042541767778149	-4.2425154197576811	0	1
2.4560479853356831	-3.2007840514049888	0	1
2.8468728227592801	-3.7101168958719621	0	1
2.2899975367116978	-3.3216112854839519	0	1
2.6543991772046729	-3.85017106867411	0	1
2.4347596341370248	-3.992693047803316	0	1
2.4514720866668651	-4.0200993231875737	0	1
2.5612462526695698	-3.9127573248523961	0	1
2.578826922980848	-3.9396149128194131	0	1
2.8528223086971249	-2.8528223086971258	0	1
3.3067848622188878	-3.30678486221889	0	1
2.7039635634608681	-2.9942897818140448	0	1
3.134238593264282	-3.4707637042144941	0	1
2.9350809481787712	-3.6407351012725431	0	1
2.955227660129276	-3.6657254993802839	0	1
3.0500517506162721	-3.5449734228288099	0	1
3.0709876345454461	-3.5693065024551971	0	1
3.200784051404987	-2.456047985335684	0	1
3.7101168958719599	-2.8468728227592841	0	1
3.071664023958891	-2.6157351498033341	0	1
3.5604503180180318	-3.031970610498274	0	1
3.3851822134390042	-3.2264831677565291	0	1
3.4084184689829771	-3.2486300959474801	0	1
3.4866700174758249	-3.1165340426883068	0	1
3.5106028962443432	-3.137926268235252	0	1
3.4939794915683171	-2.0172500000000011	0	1
4.0499678007979263	-2.3382500000000008	0	1
3.386807461380819	-2.1924245641606941	0	1
3.9257417506871719	-2.541299659015364	0	1
3.7773620724774708	-2.7570252126900652	0	1
3.8032902928402481	-2.775949730882592	0	1
3.8636303936488088	-2.6347699010109289	0	1
3.8901507690654928	-2.6528552455682801	0	1
3.7273919739167858	-1.5439363078769559	0	1
4.3205226337890323	-1.789619071455343	0	1
3.6440016841380949	-1.7316009863703381	0	1
4.2238626535808139	-2.007146365785323	0	1
4.1049102191732292	-2.2403937918426751	0	1
4.133086765315741	-2.2557720962836352	0	1
4.1744829825857428	-2.1079241158310311	0	1
4.2031370836743793	-2.1223931341392039	0	1
3.8970277461632459	-1.0442054374661209	0	1
4.517152126640827	-1.210367264421939	0	1
3.8388460277716301	-1.2411492356126921	0	1
4.4497120953957179	-1.43865024175059	0	1
4.3622222139228057	-1.685428612062347	0	1
4.3921649773285409	-1.696997575699084	0	1
4.4139090103052974	-1.5450111646022859	0	1
4.444206557451837	-1.555616287746461	0	1
3.9999842932126382	-0.52660792251179889	0	1
4.6364918942146236	-0.61040573791707209	0	1
3.968006651540799	-0.7294610773221355	0	1
4.5994257295651373	-0.84553841321030254	0	1
4.5448953771556777	-1.1016252814405401	0	1
4.576092028841062	-1.109186956097707	0	1
4.5778118310917506	-0.95566264398917666	0	1
4.6092344248644537	-0.96222241537205977	0	1
4.0345000000000004	-1.4000000000000001e-015	0	1
4.676499999999999	-1.4999999999999999e-015	0	1
4.02927358136282	-0.20529163775377779	0	1
4.6704419142999702	-0.23795918799245061	0	1
4.6498041204023588	-0.49897283682505628	0	1
4.6817208770077077	-0.50239784015277666	0	1
4.6633870222390037	-0.34996247057767071	0	1
4.6953970133464287	-0.35236465069218859	0	1
4.9175000000000004	0	0	1
7.4951499999999989	0	0	1
4.8916061454125117	0.50397972991236062	0	1
7.4556831318329619	0.76815529692986884	0	1
4.7863288765591241	0.14746472600679589	0	1
4.9151677422377098	0.15143419582726031	0	1
4.776239538469035	0.34383983359275633	0	1
4.904806818364758	0.3530953476365491	0	1
4.8427921254375326	0.85391491367713002	0	1
7.38128182998945	1.301519138840292	0	1
4.7297764950040513	1.3457416383939309	0	1
7.2090257847543704	2.0511510810387952	0	1
4.6880068051604038	0.97636169259641148	0	1
4.8141990277693472	1.002643491488713	0	1
4.6439705672150744	1.168001425872462	0	1
4.7689774180929971	1.1994418017223889	0	1
4.6209384627147054	1.6818840548039751	0	1
7.0431371466835007	2.5634922772473852	0	1
4.4242349791772817	2.1466138681710292	0	1
6.7433258371490812	3.2718236774828862	0	1
4.4472420192327906	1.77559240321934	0	1
4.566953311944463	1.8233879720233701	0	1
4.3705969002387759	1.9566738858642729	0	1
4.4882450521914929	2.0093438236097318	0	1
4.2586799231099768	2.4587500000000002	0	1
6.490990305174936	3.747574999999999	0	1
3.984265322279132	2.8822623218027799	0	1
6.0727333462695352	4.3930835671093247	0	1
4.0713500349638361	2.520872637163559	0	1
4.1809430307260298	2.5887297317069291	0	1
3.9644248580774688	2.6858937999588588	0	1
4.0711396315407331	2.7581929501937279	0	1
3.7670235490375741	3.1609080706335559	0	1
5.7416180078432069	4.817789552742064	0	1
3.423235779699064	3.5303346932816622	0	1
5.2176239256149364	5.3808618355566962	0	1
3.5717521400850289	3.189557431650667	0	1
3.6678969111782429	3.2754142484530262	0	1
3.4377957726992512	3.3335041900695361	0	1
3.530334693281663	3.4232357796990649	0	1
3.1609080706335568	3.7670235490375741	0	1
4.817789552742064	5.7416180078432069	0	1
2.758192950193727	4.0711396315407322	0	1
4.2039796422256259	6.2051453399781433	0	1
2.9636283638235299	3.7613291375710061	0	1
3.043403600029698	3.8625769606994589	0	1
2.8067110023761659	3.879827742199462	0	1
2.8822623218027812	3.984265322279132	0	1
2.4587500000000002	4.2586799231099759	0	1
3.7475749999999999	6.4909903051749342	0	1
2.0093438236097318	4.4882450521914921	0	1
3.0625995647236368	6.8408886431994027	0	1
2.2654562393955651	4.2188147609706323	0	1
2.3264380105307811	4.3323772265532901	0	1
2.0903457385101758	4.3082646916702236	0	1
2.1466138681710301	4.4242349791772808	0	1
1.681884054803976	4.6209384627147037	0	1
2.5634922772473869	7.0431371466834998	0	1
1.1994418017223889	4.7689774180929962	0	1
1.8281639491976751	7.2687750066537289	0	1
1.4984493735097371	4.5481138326814401	0	1
1.5387847793163201	4.6705404026669557	0	1
1.3104663771455369	4.6057971985717137	0	1
1.3457416383939309	4.7297764950040513	0	1
0.85391491367713035	4.8427921254375326	0	1
1.3015191388402929	7.38128182998945	0	1
0.35309534763654932	4.9048068183647571	0	1
0.53818049717093708	7.4758033197085121	0	1
0.68591288166178488	4.7392207670428697	0	1
0.70437635124500442	4.8667915720530681	0	1
0.49076915803931509	4.7633848882404388	0	1
0.50397972991236095	4.8916061454125117	0	1
2.9999999999999999e-016	4.9175000000000004	0	1
5.0000000000000004e-016	7.4951499999999989	0	1
-0.50397972991236029	4.8916061454125117	0	1
-0.76815529692986828	7.4556831318329619	0	1
-0.14746472600679561	4.7863288765591241	0	1
-0.15143419582726	4.9151677422377098	0	1
-0.34383983359275611	4.776239538469035	0	1
-0.35309534763654887	4.904806818364758	0	1
-0.85391491367712957	4.8427921254375326	0	1
-1.301519138840292	7.38128182998945	0	1
-1.3457416383939309	4.7297764950040513	0	1
-2.0511510810387938	7.2090257847543704	0	1
-0.97636169259641115	4.6880068051604038	0	1
-1.002643491488713	4.8141990277693472	0	1
-1.168001425872462	4.6439705672150744	0	1
-1.1994418017223889	4.7689774180929971	0	1
-1.6818840548039751	4.6209384627147054	0	1
-2.5634922772473852	7.0431371466835007	0	1
-2.1466138681710292	4.4242349791772817	0	1
-3.2718236774828862	6.7433258371490812	0	1
-1.77559240321934	4.4472420192327906	0	1
-1.823387972023369	4.566953311944463	0	1
-1.956673885864272	4.3705969002387759	0	1
-2.009343823609731	4.4882450521914929	0	1
-2.4587499999999989	4.2586799231099768	0	1
-3.7475749999999981	6.490990305174936	0	1
-2.8822623218027799	3.984265322279132	0	1
-4.3930835671093247	6.0727333462695352	0	1
-2.5208726371635581	4.0713500349638361	0	1
-2.5887297317069291	4.1809430307260298	0	1
-2.6858937999588579	3.9644248580774688	0	1
-2.758192950193727	4.0711396315407331	0	1
-3.1609080706335559	3.7670235490375741	0	1
-4.817789552742064	5.7416180078432069	0	1
-3.5303346932816622	3.423235779699064	0	1
-5.3808618355566962	5.2176239256149364	0	1
-3.189557431650667	3.5717521400850289	0	1
-3.2754142484530249	3.6678969111782429	0	1
-3.3335041900695361	3.4377957726992512	0	1
-3.4232357796990649	3.530334693281663	0	1
-3.7670235490375741	3.1609080706335568	0	1
-5.7416180078432069	4.817789552742064	0	1
-4.0711396315407322	2.7581929501937279	0	1
-6.2051453399781433	4.2039796422256259	0	1
-3.7613291375710061	2.9636283638235299	0	1
-3.8625769606994589	3.043403600029698	0	1
-3.879827742199462	2.8067110023761659	0	1
-3.984265322279132	2.8822623218027812	0	1
-4.2586799231099759	2.4587500000000011	0	1
-6.4909903051749342	3.7475750000000012	0	1
-4.4882450521914921	2.0093438236097332	0	1
-6.8408886431994027	3.0625995647236368	0	1
-4.2188147609706323	2.2654562393955651	0	1
-4.3323772265532901	2.3264380105307811	0	1
-4.3082646916702236	2.0903457385101771	0	1
-4.4242349791772808	2.1466138681710301	0	1
-4.6209384627147037	1.681884054803976	0	1
-7.0431371466834998	2.5634922772473869	0	1
-4.7689774180929962	1.1994418017223889	0	1
-7.2687750066537289	1.8281639491976751	0	1
-4.5481138326814401	1.4984493735097371	0	1
-4.6705404026669557	1.5387847793163201	0	1
-4.6057971985717137	1.310466377145538	0	1
-4.7297764950040513	1.345741638393932	0	1
-4.8427921254375326	0.85391491367713068	0	1
-7.38128182998945	1.3015191388402929	0	1
-4.9048068183647571	0.35309534763654959	0	1
-7.4758033197085121	0.53818049717093752	0	1
-4.7392207670428697	0.68591288166178532	0	1
-4.8667915720530681	0.70437635124500475	0	1
-4.7633848882404388	0.49076915803931531	0	1
-4.8916061454125117	0.50397972991236129	0	1
-4.9175000000000004	5.9999999999999999e-016	0	1
-7.4951499999999989	9.0000000000000003e-016	0	1
-4.8916061454125117	-0.50397972991236006	0	1
-7.4556831318329619	-0.76815529692986795	0	1
-4.7863288765591241	-0.1474647260067953	0	1
-4.9151677422377098	-0.1514341958272597	0	1
-4.776239538469035	-0.34383983359275572	0	1
-4.904806818364758	-0.35309534763654848	0	1
-4.8427921254375326	-0.85391491367712935	0	1
-7.38128182998945	-1.301519138840292	0	1
-4.7297764950040513	-1.34574163839393	0	1
-7.2090257847543704	-2.0511510810387938	0	1
-4.6880068051604038	-0.97636169259641092	0	1
-4.8141990277693472	-1.002643491488713	0	1
-4.6439705672150744	-1.1680014258724609	0	1
-4.7689774180929971	-1.199441801722388	0	1
-4.6209384627147054	-1.6818840548039751	0	1
-7.0431371466835007	-2.5634922772473838	0	1
-4.4242349791772817	-2.1466138681710292	0	1
-6.7433258371490812	-3.2718236774828848	0	1
-4.4472420192327906	-1.77559240321934	0	1
-4.566953311944463	-1.823387972023369	0	1
-4.3705969002387759	-1.956673885864272	0	1
-4.4882450521914929	-2.009343823609731	0	1
-4.2586799231099768	-2.4587499999999989	0	1
-6.490990305174936	-3.7475749999999981	0	1
-3.984265322279132	-2.8822623218027799	0	1
-6.0727333462695361	-4.3930835671093238	0	1
-4.0713500349638361	-2.5208726371635581	0	1
-4.1809430307260298	-2.5887297317069291	0	1
-3.9644248580774701	-2.6858937999588579	0	1
-4.0711396315407331	-2.758192950193727	0	1
-3.7670235490375741	-3.1609080706335559	0	1
-5.7416180078432077	-4.8177895527420631	0	1
-3.4232357796990649	-3.5303346932816608	0	1
-5.2176239256149373	-5.3808618355566953	0	1
-3.5717521400850298	-3.1895574316506661	0	1
-3.6678969111782438	-3.2754142484530249	0	1
-3.4377957726992521	-3.3335041900695348	0	1
-3.530334693281663	-3.423235779699064	0	1
-3.1609080706335568	-3.7670235490375732	0	1
-4.8177895527420649	-5.741618007843206	0	1
-2.7581929501937279	-4.0711396315407322	0	1
-4.2039796422256268	-6.2051453399781424	0	1
-2.9636283638235299	-3.7613291375710061	0	1
-3.043403600029698	-3.862576960699458	0	1
-2.8067110023761659	-3.8798277421994611	0	1
-2.8822623218027812	-3.984265322279132	0	1
-2.4587500000000011	-4.2586799231099759	0	1
-3.7475750000000012	-6.4909903051749334	0	1
-2.0093438236097332	-4.4882450521914921	0	1
-3.0625995647236381	-6.8408886431994027	0	1
-2.2654562393955651	-4.2188147609706323	0	1
-2.3264380105307811	-4.3323772265532901	0	1
-2.0903457385101771	-4.3082646916702236	0	1
-2.1466138681710301	-4.4242349791772808	0	1
-1.6818840548039771	-4.6209384627147037	0	1
-2.5634922772473878	-7.0431371466834998	0	1
-1.19944180172239	-4.7689774180929962	0	1
-1.8281639491976751	-7.2687750066537289	0	1
-1.4984493735097379	-4.5481138326814401	0	1
-1.538784779316321	-4.6705404026669557	0	1
-1.310466377145538	-4.6057971985717137	0	1
-1.345741638393932	-4.7297764950040513	0	1
-0.8539149136771309	-4.8427921254375326	0	1
-1.301519138840294	-7.38128182998945	0	1
-0.35309534763654993	-4.9048068183647571	0	1
-0.53818049717093797	-7.4758033197085121	0	1
-0.68591288166178555	-4.7392207670428697	0	1
-0.70437635124500486	-4.8667915720530681	0	1
-0.49076915803931559	-4.7633848882404388	0	1
-0.50397972991236151	-4.8916061454125117	0	1
-9.0000000000000003e-016	-4.9175000000000004	0	1
-1.4000000000000001e-015	-7.4951499999999989	0	1